 # Bcc Fe oriented X=[100] Y=[010] Z=[001].
 CRYSTAL
 PRIMVEC
     14.30000000        0.00000000        0.00000000
      0.00000000       14.30000000        0.00000000
      0.00000000        0.00000000       14.30000000
 CONVVEC
     14.30000000        0.00000000        0.00000000
      0.00000000       14.30000000        0.00000000
      0.00000000        0.00000000       14.30000000
 PRIMCOORD
      250 1
26        0.00000000        0.00000000        0.00000000
26        1.43000000        1.43000000        1.43000000
26        2.86000000        0.00000000        0.00000000
26        4.29000000        1.43000000        1.43000000
26        5.72000000        0.00000000        0.00000000
26        7.15000000        1.43000000        1.43000000
26        8.58000000        0.00000000        0.00000000
26       10.01000000        1.43000000        1.43000000
26       11.44000000        0.00000000        0.00000000
26       12.87000000        1.43000000        1.43000000
26        0.00000000        2.86000000        0.00000000
26        1.43000000        4.29000000        1.43000000
26        2.86000000        2.86000000        0.00000000
26        4.29000000        4.29000000        1.43000000
26        5.72000000        2.86000000        0.00000000
26        7.15000000        4.29000000        1.43000000
26        8.58000000        2.86000000        0.00000000
26       10.01000000        4.29000000        1.43000000
26       11.44000000        2.86000000        0.00000000
26       12.87000000        4.29000000        1.43000000
26        0.00000000        5.72000000        0.00000000
26        1.43000000        7.15000000        1.43000000
26        2.86000000        5.72000000        0.00000000
26        4.29000000        7.15000000        1.43000000
26        5.72000000        5.72000000        0.00000000
26        7.15000000        7.15000000        1.43000000
26        8.58000000        5.72000000        0.00000000
26       10.01000000        7.15000000        1.43000000
26       11.44000000        5.72000000        0.00000000
26       12.87000000        7.15000000        1.43000000
26        0.00000000        8.58000000        0.00000000
26        1.43000000       10.01000000        1.43000000
26        2.86000000        8.58000000        0.00000000
26        4.29000000       10.01000000        1.43000000
26        5.72000000        8.58000000        0.00000000
26        7.15000000       10.01000000        1.43000000
26        8.58000000        8.58000000        0.00000000
26       10.01000000       10.01000000        1.43000000
26       11.44000000        8.58000000        0.00000000
26       12.87000000       10.01000000        1.43000000
26        0.00000000       11.44000000        0.00000000
26        1.43000000       12.87000000        1.43000000
26        2.86000000       11.44000000        0.00000000
26        4.29000000       12.87000000        1.43000000
26        5.72000000       11.44000000        0.00000000
26        7.15000000       12.87000000        1.43000000
26        8.58000000       11.44000000        0.00000000
26       10.01000000       12.87000000        1.43000000
26       11.44000000       11.44000000        0.00000000
26       12.87000000       12.87000000        1.43000000
26        0.00000000        0.00000000        2.86000000
26        1.43000000        1.43000000        4.29000000
26        2.86000000        0.00000000        2.86000000
26        4.29000000        1.43000000        4.29000000
26        5.72000000        0.00000000        2.86000000
26        7.15000000        1.43000000        4.29000000
26        8.58000000        0.00000000        2.86000000
26       10.01000000        1.43000000        4.29000000
26       11.44000000        0.00000000        2.86000000
26       12.87000000        1.43000000        4.29000000
26        0.00000000        2.86000000        2.86000000
26        1.43000000        4.29000000        4.29000000
26        2.86000000        2.86000000        2.86000000
26        4.29000000        4.29000000        4.29000000
26        5.72000000        2.86000000        2.86000000
26        7.15000000        4.29000000        4.29000000
26        8.58000000        2.86000000        2.86000000
26       10.01000000        4.29000000        4.29000000
26       11.44000000        2.86000000        2.86000000
26       12.87000000        4.29000000        4.29000000
26        0.00000000        5.72000000        2.86000000
26        1.43000000        7.15000000        4.29000000
26        2.86000000        5.72000000        2.86000000
26        4.29000000        7.15000000        4.29000000
26        5.72000000        5.72000000        2.86000000
26        7.15000000        7.15000000        4.29000000
26        8.58000000        5.72000000        2.86000000
26       10.01000000        7.15000000        4.29000000
26       11.44000000        5.72000000        2.86000000
26       12.87000000        7.15000000        4.29000000
26        0.00000000        8.58000000        2.86000000
26        1.43000000       10.01000000        4.29000000
26        2.86000000        8.58000000        2.86000000
26        4.29000000       10.01000000        4.29000000
26        5.72000000        8.58000000        2.86000000
26        7.15000000       10.01000000        4.29000000
26        8.58000000        8.58000000        2.86000000
26       10.01000000       10.01000000        4.29000000
26       11.44000000        8.58000000        2.86000000
26       12.87000000       10.01000000        4.29000000
26        0.00000000       11.44000000        2.86000000
26        1.43000000       12.87000000        4.29000000
26        2.86000000       11.44000000        2.86000000
26        4.29000000       12.87000000        4.29000000
26        5.72000000       11.44000000        2.86000000
26        7.15000000       12.87000000        4.29000000
26        8.58000000       11.44000000        2.86000000
26       10.01000000       12.87000000        4.29000000
26       11.44000000       11.44000000        2.86000000
26       12.87000000       12.87000000        4.29000000
26        0.00000000        0.00000000        5.72000000
26        1.43000000        1.43000000        7.15000000
26        2.86000000        0.00000000        5.72000000
26        4.29000000        1.43000000        7.15000000
26        5.72000000        0.00000000        5.72000000
26        7.15000000        1.43000000        7.15000000
26        8.58000000        0.00000000        5.72000000
26       10.01000000        1.43000000        7.15000000
26       11.44000000        0.00000000        5.72000000
26       12.87000000        1.43000000        7.15000000
26        0.00000000        2.86000000        5.72000000
26        1.43000000        4.29000000        7.15000000
26        2.86000000        2.86000000        5.72000000
26        4.29000000        4.29000000        7.15000000
26        5.72000000        2.86000000        5.72000000
26        7.15000000        4.29000000        7.15000000
26        8.58000000        2.86000000        5.72000000
26       10.01000000        4.29000000        7.15000000
26       11.44000000        2.86000000        5.72000000
26       12.87000000        4.29000000        7.15000000
26        0.00000000        5.72000000        5.72000000
26        1.43000000        7.15000000        7.15000000
26        2.86000000        5.72000000        5.72000000
26        4.29000000        7.15000000        7.15000000
26        5.72000000        5.72000000        5.72000000
26        7.15000000        7.15000000        7.15000000
26        8.58000000        5.72000000        5.72000000
26       10.01000000        7.15000000        7.15000000
26       11.44000000        5.72000000        5.72000000
26       12.87000000        7.15000000        7.15000000
26        0.00000000        8.58000000        5.72000000
26        1.43000000       10.01000000        7.15000000
26        2.86000000        8.58000000        5.72000000
26        4.29000000       10.01000000        7.15000000
26        5.72000000        8.58000000        5.72000000
26        7.15000000       10.01000000        7.15000000
26        8.58000000        8.58000000        5.72000000
26       10.01000000       10.01000000        7.15000000
26       11.44000000        8.58000000        5.72000000
26       12.87000000       10.01000000        7.15000000
26        0.00000000       11.44000000        5.72000000
26        1.43000000       12.87000000        7.15000000
26        2.86000000       11.44000000        5.72000000
26        4.29000000       12.87000000        7.15000000
26        5.72000000       11.44000000        5.72000000
26        7.15000000       12.87000000        7.15000000
26        8.58000000       11.44000000        5.72000000
26       10.01000000       12.87000000        7.15000000
26       11.44000000       11.44000000        5.72000000
26       12.87000000       12.87000000        7.15000000
26        0.00000000        0.00000000        8.58000000
26        1.43000000        1.43000000       10.01000000
26        2.86000000        0.00000000        8.58000000
26        4.29000000        1.43000000       10.01000000
26        5.72000000        0.00000000        8.58000000
26        7.15000000        1.43000000       10.01000000
26        8.58000000        0.00000000        8.58000000
26       10.01000000        1.43000000       10.01000000
26       11.44000000        0.00000000        8.58000000
26       12.87000000        1.43000000       10.01000000
26        0.00000000        2.86000000        8.58000000
26        1.43000000        4.29000000       10.01000000
26        2.86000000        2.86000000        8.58000000
26        4.29000000        4.29000000       10.01000000
26        5.72000000        2.86000000        8.58000000
26        7.15000000        4.29000000       10.01000000
26        8.58000000        2.86000000        8.58000000
26       10.01000000        4.29000000       10.01000000
26       11.44000000        2.86000000        8.58000000
26       12.87000000        4.29000000       10.01000000
26        0.00000000        5.72000000        8.58000000
26        1.43000000        7.15000000       10.01000000
26        2.86000000        5.72000000        8.58000000
26        4.29000000        7.15000000       10.01000000
26        5.72000000        5.72000000        8.58000000
26        7.15000000        7.15000000       10.01000000
26        8.58000000        5.72000000        8.58000000
26       10.01000000        7.15000000       10.01000000
26       11.44000000        5.72000000        8.58000000
26       12.87000000        7.15000000       10.01000000
26        0.00000000        8.58000000        8.58000000
26        1.43000000       10.01000000       10.01000000
26        2.86000000        8.58000000        8.58000000
26        4.29000000       10.01000000       10.01000000
26        5.72000000        8.58000000        8.58000000
26        7.15000000       10.01000000       10.01000000
26        8.58000000        8.58000000        8.58000000
26       10.01000000       10.01000000       10.01000000
26       11.44000000        8.58000000        8.58000000
26       12.87000000       10.01000000       10.01000000
26        0.00000000       11.44000000        8.58000000
26        1.43000000       12.87000000       10.01000000
26        2.86000000       11.44000000        8.58000000
26        4.29000000       12.87000000       10.01000000
26        5.72000000       11.44000000        8.58000000
26        7.15000000       12.87000000       10.01000000
26        8.58000000       11.44000000        8.58000000
26       10.01000000       12.87000000       10.01000000
26       11.44000000       11.44000000        8.58000000
26       12.87000000       12.87000000       10.01000000
26        0.00000000        0.00000000       11.44000000
26        1.43000000        1.43000000       12.87000000
26        2.86000000        0.00000000       11.44000000
26        4.29000000        1.43000000       12.87000000
26        5.72000000        0.00000000       11.44000000
26        7.15000000        1.43000000       12.87000000
26        8.58000000        0.00000000       11.44000000
26       10.01000000        1.43000000       12.87000000
26       11.44000000        0.00000000       11.44000000
26       12.87000000        1.43000000       12.87000000
26        0.00000000        2.86000000       11.44000000
26        1.43000000        4.29000000       12.87000000
26        2.86000000        2.86000000       11.44000000
26        4.29000000        4.29000000       12.87000000
26        5.72000000        2.86000000       11.44000000
26        7.15000000        4.29000000       12.87000000
26        8.58000000        2.86000000       11.44000000
26       10.01000000        4.29000000       12.87000000
26       11.44000000        2.86000000       11.44000000
26       12.87000000        4.29000000       12.87000000
26        0.00000000        5.72000000       11.44000000
26        1.43000000        7.15000000       12.87000000
26        2.86000000        5.72000000       11.44000000
26        4.29000000        7.15000000       12.87000000
26        5.72000000        5.72000000       11.44000000
26        7.15000000        7.15000000       12.87000000
26        8.58000000        5.72000000       11.44000000
26       10.01000000        7.15000000       12.87000000
26       11.44000000        5.72000000       11.44000000
26       12.87000000        7.15000000       12.87000000
26        0.00000000        8.58000000       11.44000000
26        1.43000000       10.01000000       12.87000000
26        2.86000000        8.58000000       11.44000000
26        4.29000000       10.01000000       12.87000000
26        5.72000000        8.58000000       11.44000000
26        7.15000000       10.01000000       12.87000000
26        8.58000000        8.58000000       11.44000000
26       10.01000000       10.01000000       12.87000000
26       11.44000000        8.58000000       11.44000000
26       12.87000000       10.01000000       12.87000000
26        0.00000000       11.44000000       11.44000000
26        1.43000000       12.87000000       12.87000000
26        2.86000000       11.44000000       11.44000000
26        4.29000000       12.87000000       12.87000000
26        5.72000000       11.44000000       11.44000000
26        7.15000000       12.87000000       12.87000000
26        8.58000000       11.44000000       11.44000000
26       10.01000000       12.87000000       12.87000000
26       11.44000000       11.44000000       11.44000000
26       12.87000000       12.87000000       12.87000000
